src/test/resources/ieeefiles/ieee_orginal.txt
 20100310 db                   100.0  2010 1                    db_sedata
BUS DATA FOLLOWS                    879 ITEMS
   1 阿城变.220.1 1   1  0 1.0530  0.000   86.974  27.6004  0.00000  0.0000  220.00 0.0000 0.00000 0.00000  0.0000  0.0000 0   
   2 阿拉坦变.60. 1   1  0 .91366  0.000   .54090  17.5894  0.00000  0.0000  66.000 0.0000 0.00000 0.00000  0.0000  -0.623 0   
   3 阿拉坦变.220 1   1  0 1.0287  0.000   0.0000  0.00000  0.00000  0.0000  220.00 0.0000 0.00000 0.00000  0.0000  0.0000 0   
   4 阿拉坦变.500 1   1  0 1.0664  0.000   0.0000  0.00000  0.00000  0.0000  500.00 0.0000 0.00000 0.00000  0.0000  -3.265 0   
   5 阿南变.220.1 1   1  0 1.0547  0.000   40.298  13.5980  0.00000  0.0000  220.00 0.0000 0.00000 0.00000  0.0000  0.0000 0   
   6 鞍山电厂.220 1   1  0 1.0109  0.000   128.88  39.5107  0.00000  0.0000  220.00 0.0000 0.00000 0.00000  0.0000  0.0000 0   
   7 鞍山电厂.220 1   1  0 1.0150  0.000   258.71  44.6270  0.00000  0.0000  220.00 0.0000 0.00000 0.00000  0.0000  0.0000 0   
   8 鞍山变.60.1  1   1  0 .93011  0.000   -1.532  -5.6634  0.00000  0.0000  66.000 0.0000 0.00000 0.00000  0.0000  0.0000 0   
   9 鞍山变.60.2  1   1  0 .93054  0.000   -3.024  -6.6743  0.00000  0.0000  66.000 0.0000 0.00000 0.00000  0.0000  0.0000 0   
  10 鞍山变.220.1 1   1  0 1.0175  0.000   0.0000  0.00000  0.00000  0.0000  220.00 0.0000 0.00000 0.00000  0.0000  0.0000 0   
  11 鞍山变.500.1 1   1  0 1.0430  0.000   0.0000  0.00000  0.00000  0.0000  500.00 0.0000 0.00000 0.00000  0.0000  0.0000 0   
  12 巴林变.60.1  1   1  0 .86382  0.000   .71917  49.8025  0.00000  0.0000  66.000 0.0000 0.00000 0.00000  0.0000  -1.126 0   
  13 巴林变.60.2  1   1  0 .91703  0.000   .22736  16.6936  0.00000  0.0000  66.000 0.0000 0.00000 0.00000  0.0000  -0.609 0   
  14 巴林变.500.1 1   1  0 1.0800  0.000   0.0000  0.00000  0.00000  0.0000  500.00 0.0000 0.00000 0.00000  0.0000  -2.000 0   
  15 北安变.220.1 1   1  0 1.0708  0.000   -34.43  21.6813  0.00000  0.0000  220.00 0.0000 0.00000 0.00000  0.0000  0.0000 0   
  17 白城变.220.1 1   1  0 1.0631  0.000   -10.50  4.89928  0.00000  0.0000  220.00 0.0000 0.00000 0.00000  0.0000  0.0000 0   
  16 巴彦变.220.1 1   1  0 1.0755  0.000   -13.63  4.50797  0.00000  0.0000  220.00 0.0000 0.00000 0.00000  0.0000  0.0000 0   
  19 宾发变.220.1 1   1  0 1.0595  0.000   43.270  12.0264  0.00000  0.0000  220.00 0.0000 0.00000 0.00000  0.0000  0.0000 0   
  18 北架风电变.2 1   1  0 1.0565  0.000   -14.54  -1.0550  0.00000  0.0000  220.00 0.0000 0.00000 0.00000  0.0000  0.0000 0   
  21 滨海变.220.1 1   1  0 1.0263  0.000   52.583  -3.2893  0.00000  0.0000  220.00 0.0000 0.00000 0.00000  0.0000  0.0000 0   
  20 北钢变.220.1 1   1  0 1.0973  0.000   3.7761  .809970  0.00000  0.0000  220.00 0.0000 0.00000 0.00000  0.0000  0.0000 0   
  23 包家变.60.1  1   1  0 .92080  0.000   0.0000  0.00000  0.00000  0.0000  66.000 0.0000 0.00000 0.00000  0.0000  -2.400 0   
  22 北石洞变.220 1   1  0 1.0140  0.000   60.156  -11.268  0.00000  0.0000  220.00 0.0000 0.00000 0.00000  0.0000  0.0000 0   
  25 包家变.500.1 1   1  0 1.0733  0.000   0.0000  0.00000  0.00000  0.0000  500.00 0.0000 0.00000 0.00000  0.0000  -1.088 0   
  24 包家变.220.1 1   1  0 1.0623  0.000   0.0000  0.00000  0.00000  0.0000  220.00 0.0000 0.00000 0.00000  0.0000  0.0000 0   
  27 宝龙山变.220 1   1  0 1.0489  0.000   18.989  8.87434  0.00000  0.0000  220.00 0.0000 0.00000 0.00000  0.0000  0.0000 0   
  26 北郊变.220.1 1   1  0 1.0566  0.000   163.15  52.2101  0.00000  0.0000  220.00 0.0000 0.00000 0.00000  0.0000  0.0000 0   
  29 北宁变.60.2  1   1  0 .92407  0.000   0.0254  7.37066  0.00000  0.0000  66.000 0.0000 0.00000 0.00000  0.0000  -1.200 0   
  28 北宁变.60.1  1   1  0 .92399  0.000   .74966  7.51950  0.00000  0.0000  66.000 0.0000 0.00000 0.00000  0.0000  -1.200 0   
  31 北宁变.500.1 1   1  0 1.0545  0.000   0.0000  0.00000  0.00000  0.0000  500.00 0.0000 0.00000 0.00000  0.0000  0.0000 0   
  30 北宁变.220.1 1   1  0 1.0524  0.000   0.0000  0.00000  0.00000  0.0000  220.00 0.0000 0.00000 0.00000  0.0000  0.0000 0   
  34 渤海变.500.1 1   1  0 1.0480  0.000   0.0000  0.00000  0.00000  0.0000  500.00 0.0000 0.00000 0.00000  0.0000  0.0000 0   
  35 北票变.220.1 1   1  0 1.0419  0.000   72.839  22.4997  0.00000  0.0000  220.00 0.0000 0.00000 0.00000  0.0000  0.0000 0   
  33 渤海变.220.1 1   1  0 1.0263  0.000   0.0000  0.00000  0.00000  0.0000  220.00 0.0000 0.00000 0.00000  0.0000  0.0000 0   
  38 北沙变.220.1 1   1  0 1.0350  0.000   -23.35  5.06773  0.00000  0.0000  220.00 0.0000 0.00000 0.00000  0.0000  0.0000 0   
  39 白山水电厂.2 1   1  0 1.0738  0.000   .81153  7.08235  0.00000  0.0000  220.00 0.0000 0.00000 0.00000  0.0000  0.0000 0   
  36 北清河风电变 1   1  0 1.0262  0.000   -48.72  20.1689  0.00000  0.0000  220.00 0.0000 0.00000 0.00000  0.0000  0.0000 0   
  37 白山热电厂.2 1   1  0 1.0317  0.000   1.4984  .995670  0.00000  0.0000  220.00 0.0000 0.00000 0.00000  0.0000  0.0000 0   
  42 北台变.220.1 1   1  0 1.0023  0.000   219.66  62.1617  0.00000  0.0000  220.00 0.0000 0.00000 0.00000  0.0000  0.0000 0   
  43 本溪变.220.1 1   1  0 1.0109  0.000   139.77  18.3262  0.00000  0.0000  220.00 0.0000 0.00000 0.00000  0.0000  0.0000 0   
  40 白山水电厂.2 1   1  0 1.0689  0.000   2.3705  35.6984  0.00000  0.0000  220.00 0.0000 0.00000 0.00000  0.0000  0.0000 0   
  41 白山变.220.1 1   1  0 1.0376  0.000   29.242  12.7438  0.00000  0.0000  220.00 0.0000 0.00000 0.00000  0.0000  0.0000 0   
  46 白玉变.220.1 1   1  0 1.0079  0.000   95.647  26.5709  0.00000  0.0000  220.00 0.0000 0.00000 0.00000  0.0000  0.0000 0   
  47 宾州变.220.1 1   1  0 1.0617  0.000   10.398  1.12982  0.00000  0.0000  220.00 0.0000 0.00000 0.00000  0.0000  0.0000 0   
  44 白云变.220.1 1   1  0 1.0639  0.000   14.593  1.00630  0.00000  0.0000  220.00 0.0000 0.00000 0.00000  0.0000  0.0000 0   
  45 白音华火电厂 1   1  0 1.0724  0.000   .67546  15.5817  0.00000  0.0000  500.00 0.0000 0.00000 0.00000  0.0000  -1.500 0   
  51 长白变.220.1 1   1  0 1.0495  0.000   .19048  .444014  0.00000  0.0000  220.00 0.0000 0.00000 0.00000  0.0000  0.0000 0   
  50 城昂堡变.220 1   1  0 1.0155  0.000   140.01  36.4292  0.00000  0.0000  220.00 0.0000 0.00000 0.00000  0.0000  0.0000 0   
  49 曹屯变.220.1 1   1  0 1.0134  0.000   127.35  18.3523  0.00000  0.0000  220.00 0.0000 0.00000 0.00000  0.0000  0.0000 0   
  48 长四热电厂.2 1   1  0 1.0645  0.000   4.4433  1.98073  0.00000  0.0000  220.00 0.0000 0.00000 0.00000  0.0000  0.0000 0   
  55 长甸水电厂.2 1   1  0 1.0461  0.000   0.0000  0.00000  0.00000  0.0000  220.00 0.0000 0.00000 0.00000  0.0000  0.0000 0   
  54 达里变.220.1 1   1  0 1.0717  0.000   -49.22  14.0905  0.00000  0.0000  220.00 0.0000 0.00000 0.00000  0.0000  0.0000 0   
  53 长春变.220.1 1   1  0 1.0663  0.000   99.676  22.8790  0.00000  0.0000  220.00 0.0000 0.00000 0.00000  0.0000  0.0000 0   
  52 长三热电厂.2 1   1  0 1.0695  0.000   14.350  15.6094  0.00000  0.0000  220.00 0.0000 0.00000 0.00000  0.0000  0.0000 0   
  59 程家变.60.1  1   1  0 .90393  0.000   0.0000  0.00000  0.00000  0.0000  66.000 0.0000 0.00000 0.00000  0.0000  -0.587 0   
  58 城乡变.220.1 1   1  0 1.0853  0.000   56.993  1.65143  0.00000  0.0000  220.00 0.0000 0.00000 0.00000  0.0000  0.0000 0   
  57 草河口变.220 1   1  0 1.0271  0.000   53.807  14.0153  0.00000  0.0000  220.00 0.0000 0.00000 0.00000  0.0000  0.0000 0   
  56 赤峰变.220.1 1   1  0 1.0585  0.000   141.58  89.0652  0.00000  0.0000  220.00 0.0000 0.00000 0.00000  0.0000  0.0000 0   
  63 长岭变.220.1 1   1  0 1.0563  0.000   23.926  10.6919  0.00000  0.0000  220.00 0.0000 0.00000 0.00000  0.0000  0.0000 0   
  62 春蕾变.220.1 1   1  0 1.0797  0.000   129.88  35.4750  0.00000  0.0000  220.00 0.0000 0.00000 0.00000  0.0000  0.0000 0   
  61 程家变.500.1 1   1  0 1.0517  0.000   0.0000  0.00000  0.00000  0.0000  500.00 0.0000 0.00000 0.00000  0.0000  0.0000 0   
  60 程家变.220.1 1   1  0 1.0137  0.000   0.0000  0.00000  0.00000  0.0000  220.00 0.0000 0.00000 0.00000  0.0000  0.0000 0   
  68 长山岛变.220 1   1  0 1.0122  0.000   83.770  18.0003  0.00000  0.0000  220.00 0.0000 0.00000 0.00000  0.0000  0.0000 0   
  69 长山电厂.220 1   1  0 1.0521  0.000   75.165  17.3837  0.00000  0.0000  220.00 0.0000 0.00000 0.00000  0.0000  0.0000 0   
  70 岔山变.220.1 1   1  0 1.0150  0.000   40.936  10.8067  0.00000  0.0000  220.00 0.0000 0.00000 0.00000  0.0000  0.0000 0   
  71 昌图变.220.1 1   1  0 1.0643  0.000   -153.7  40.5395  0.00000  0.0000  220.00 0.0000 0.00000 0.00000  0.0000  0.0000 0   
  64 城南变.220.1 1   1  0 1.0680  0.000   59.999  13.8738  0.00000  0.0000  220.00 0.0000 0.00000 0.00000  0.0000  0.0000 0   
  65 赤峰热电厂.2 1   1  0 1.0590  0.000   0.0000  0.00000  0.00000  0.0000  220.00 0.0000 0.00000 0.00000  0.0000  0.0000 0   
  66 赤峰热电厂.2 1   1  0 1.0589  0.000   0.0000  0.00000  0.00000  0.0000  220.00 0.0000 0.00000 0.00000  0.0000  0.0000 0   
  67 长山变.220.1 1   1  0 1.0522  0.000   7.8388  8.67254  0.00000  0.0000  220.00 0.0000 0.00000 0.00000  0.0000  0.0000 0   
  76 大板变.220.1 1   1  0 1.0792  0.000   19.095  .149626  0.00000  0.0000  220.00 0.0000 0.00000 0.00000  0.0000  0.0000 0   
  77 大安变.220.1 1   1  0 1.0531  0.000   44.774  14.0944  0.00000  0.0000  220.00 0.0000 0.00000 0.00000  0.0000  0.0000 0   
  78 东鞍山变.220 1   1  0 1.0155  0.000   202.89  -50.718  0.00000  0.0000  220.00 0.0000 0.00000 0.00000  0.0000  0.0000 0   
  79 调兵山变.220 1   1  0 1.0717  0.000   -42.76  4.98377  0.00000  0.0000  220.00 0.0000 0.00000 0.00000  0.0000  0.0000 0   
  72 城西变.220.1 1   1  0 1.0653  0.000   51.611  16.4976  0.00000  0.0000  220.00 0.0000 0.00000 0.00000  0.0000  0.0000 0   
  73 赤西郊变.220 1   1  0 1.0592  0.000   24.919  11.1294  0.00000  0.0000  220.00 0.0000 0.00000 0.00000  0.0000  0.0000 0   
  74 朝阳电厂.220 1   1  0 1.0478  0.000   0.0000  0.00000  0.00000  0.0000  220.00 0.0000 0.00000 0.00000  0.0000  0.0000 0   
  75 城园变.220.1 1   1  0 1.0275  0.000   4.6400  15.7902  0.00000  0.0000  220.00 0.0000 0.00000 0.00000  0.0000  0.0000 0   
  85 丹东变.220.1 1   1  0 1.0465  0.000   86.889  17.4200  0.00000  0.0000  220.00 0.0000 0.00000 0.00000  0.0000  0.0000 0   
  84 丹东电厂.220 1   1  0 1.0514  0.000   0.0000  0.00000  0.00000  0.0000  220.00 0.0000 0.00000 0.00000  0.0000  0.0000 0   
  87 大岗风电变.2 1   1  0 1.0554  0.000   -47.41  10.9045  0.00000  0.0000  220.00 0.0000 0.00000 0.00000  0.0000  0.0000 0   
  86 德惠变.220.1 1   1  0 1.0507  0.000   81.010  13.8180  0.00000  0.0000  220.00 0.0000 0.00000 0.00000  0.0000  0.0000 0   
  81 东辛庄变.220 1   1  0 1.0595  0.000   4.0811  -8.2168  0.00000  0.0000  220.00 0.0000 0.00000 0.00000  0.0000  0.0000 0   
  80 大成变.220.1 1   1  0 1.0411  0.000   129.06  51.4454  0.00000  0.0000  220.00 0.0000 0.00000 0.00000  0.0000  0.0000 0   
  83 丹东北变.500 1   1  0 1.0613  0.000   0.0000  0.00000  0.00000  0.0000  500.00 0.0000 0.00000 0.00000  0.0000  0.0000 0   
  82 丹东北变.220 1   1  0 1.0490  0.000   0.0000  0.00000  0.00000  0.0000  220.00 0.0000 0.00000 0.00000  0.0000  0.0000 0   
  93 达连河变.220 1   1  0 1.0614  0.000   32.734  8.94557  0.00000  0.0000  220.00 0.0000 0.00000 0.00000  0.0000  0.0000 0   
  92 董家变.500.1 1   1  0 1.0588  0.000   0.0000  0.00000  0.00000  0.0000  500.00 0.0000 0.00000 0.00000  0.0000  -4.950 0   
  95 大连变.220.1 1   1  0 1.0167  0.000   123.16  -2.2515  0.00000  0.0000  220.00 0.0000 0.00000 0.00000  0.0000  0.0000 0   
  94 代力吉变.220 1   1  0 1.0596  0.000   -138.0  0.02937  0.00000  0.0000  220.00 0.0000 0.00000 0.00000  0.0000  0.0000 0   
  89 敦化变.220.1 1   1  0 1.0581  0.000   25.803  12.3413  0.00000  0.0000  220.00 0.0000 0.00000 0.00000  0.0000  0.0000 0   
  88 大黑山变.220 1   1  0 1.0697  0.000   -47.71  16.8892  0.00000  0.0000  220.00 0.0000 0.00000 0.00000  0.0000  0.0000 0   
  91 董家变.220.1 1   1  0 1.0691  0.000   0.0000  0.00000  0.00000  0.0000  220.00 0.0000 0.00000 0.00000  0.0000  0.0000 0   
  90 代家沟变.220 1   1  0 1.0167  0.000   330.03  76.3789  0.00000  0.0000  220.00 0.0000 0.00000 0.00000  0.0000  0.0000 0   
 102 大庆变.60.1  1   1  0 .93725  0.000   -0.171  21.7152  0.00000  0.0000  66.000 0.0000 0.00000 0.00000  0.0000  -1.800 0   
 103 大庆变.220.1 1   1  0 1.0819  0.000   0.0000  0.00000  0.00000  0.0000  220.00 0.0000 0.00000 0.00000  0.0000  0.0000 0   
 100 大庆电厂.220 1   1  0 1.0614  0.000   0.0000  0.00000  0.00000  0.0000  220.00 0.0000 0.00000 0.00000  0.0000  0.0000 0   
 101 大庆变.35.1  1   1  0 .99876  0.000   -0.204  -7.8946  0.00000  0.0000  35.000 0.0000 0.00000 0.00000  0.0000  -1.800 0   
  98 东梁变.220.1 1   1  0 1.0693  0.000   62.570  21.4537  0.00000  0.0000  220.00 0.0000 0.00000 0.00000  0.0000  0.0000 0   
  99 东山变.220.1 1   1  0 1.0660  0.000   -102.3  5.54148  0.00000  0.0000  220.00 0.0000 0.00000 0.00000  0.0000  0.0000 0   
  96 调兵山煤矸石 1   1  0 1.0796  0.000   0.0000  0.00000  0.00000  0.0000  220.00 0.0000 0.00000 0.00000  0.0000  0.0000 0   
  97 东郊变.220.1 1   1  0 1.0609  0.000   155.38  84.2798  0.00000  0.0000  220.00 0.0000 0.00000 0.00000  0.0000  0.0000 0   
 110 大连湾电厂.2 1   1  0 1.0193  0.000   0.0000  0.00000  0.00000  0.0000  220.00 0.0000 0.00000 0.00000  0.0000  0.0000 0   
 111 二道江电厂.2 1   1  0 1.0379  0.000   0.0000  0.00000  0.00000  0.0000  220.00 0.0000 0.00000 0.00000  0.0000  0.0000 0   
 108 灯塔变.220.1 1   1  0 1.0025  0.000   76.298  44.2026  0.00000  0.0000  220.00 0.0000 0.00000 0.00000  0.0000  0.0000 0   
 109 多宝山变.220 1   1  0 1.0663  0.000   13.322  25.4288  0.00000  0.0000  220.00 0.0000 0.00000 0.00000  0.0000  0.0000 0   
 106 大三电厂.220 1   1  0 1.0196  0.000   69.627  -4.1203  0.00000  0.0000  220.00 0.0000 0.00000 0.00000  0.0000  0.0000 0   
 107 大石桥变.220 1   1  0 1.0141  0.000   125.74  24.9430  0.00000  0.0000  220.00 0.0000 0.00000 0.00000  0.0000  0.0000 0   
 104 大庆变.500.1 1   1  0 1.0783  0.000   0.0000  0.00000  0.00000  0.0000  500.00 0.0000 0.00000 0.00000  0.0000  -1.500 0   
 105 东胜变.220.1 1   1  0 1.0442  0.000   64.924  .967672  0.00000  0.0000  220.00 0.0000 0.00000 0.00000  0.0000  0.0000 0   
 119 法库变.220.1 1   1  0 1.0755  0.000   -13.38  22.9193  0.00000  0.0000  220.00 0.0000 0.00000 0.00000  0.0000  0.0000 0   
 118 富锦变.220.1 1   1  0 1.0656  0.000   -32.24  4.88993  0.00000  0.0000  220.00 0.0000 0.00000 0.00000  0.0000  0.0000 0   
 117 富家变.220.1 1   1  0 1.0024  0.000   236.88  80.6638  0.00000  0.0000  220.00 0.0000 0.00000 0.00000  0.0000  0.0000 0   
 116 凤城变.220.1 1   1  0 1.0401  0.000   142.32  44.3141  0.00000  0.0000  220.00 0.0000 0.00000 0.00000  0.0000  0.0000 0   
 115 阜北风电变.2 1   1  0 1.0816  0.000   -170.9  -0.5243  0.00000  0.0000  220.00 0.0000 0.00000 0.00000  0.0000  0.0000 0   
 114 范家变.220.1 1   1  0 1.0246  0.000   233.88  58.4665  0.00000  0.0000  220.00 0.0000 0.00000 0.00000  0.0000  0.0000 0   
 113 长二热电厂.2 1   1  0 1.0688  0.000   1.3746  2.34270  0.00000  0.0000  220.00 0.0000 0.00000 0.00000  0.0000  0.0000 0   
 112 长二热电厂.2 1   1  0 1.0640  0.000   .88935  2.82239  0.00000  0.0000  220.00 0.0000 0.00000 0.00000  0.0000  0.0000 0   
 127 冯屯变.500.1 1   1  0 1.0878  0.000   0.0000  0.00000  0.00000  0.0000  500.00 0.0000 0.00000 0.00000  0.0000  0.0000 0   
 126 冯屯变.220.1 1   1  0 1.1002  0.000   0.0000  0.00000  0.00000  0.0000  220.00 0.0000 0.00000 0.00000  0.0000  0.0000 0   
 125 冯屯变.35.1  1   1  0 .99748  0.000   0.0000  0.00000  0.00000  0.0000  35.000 0.0000 0.00000 0.00000  0.0000  -1.800 0   
 124 繁荣变.220.1 1   1  0 1.0433  0.000   123.40  65.4484  0.00000  0.0000  220.00 0.0000 0.00000 0.00000  0.0000  0.0000 0   
 123 富二电厂.220 1   1  0 1.0985  0.000   0.0000  0.00000  0.00000  0.0000  220.00 0.0000 0.00000 0.00000  0.0000  0.0000 0   
 122 丰满水电厂.2 1   1  0 1.0715  0.000   0.0000  0.00000  0.00000  0.0000  220.00 0.0000 0.00000 0.00000  0.0000  0.0000 0   
 121 丰乐变.220.1 1   1  0 1.0479  0.000   159.37  42.7631  0.00000  0.0000  220.00 0.0000 0.00000 0.00000  0.0000  0.0000 0   
 120 富拉尔基变.2 1   1  0 1.0974  0.000   68.527  22.5960  0.00000  0.0000  220.00 0.0000 0.00000 0.00000  0.0000  0.0000 0   
 137 钢铁变.220.1 1   1  0 1.0256  0.000   147.79  34.5386  0.00000  0.0000  220.00 0.0000 0.00000 0.00000  0.0000  0.0000 0   
 136 甘泉变.220.1 1   1  0 1.0208  0.000   161.79  29.9610  0.00000  0.0000  220.00 0.0000 0.00000 0.00000  0.0000  0.0000 0   
 139 高城山变.220 1   1  0 1.0138  0.000   67.375  -3.3113  0.00000  0.0000  220.00 0.0000 0.00000 0.00000  0.0000  0.0000 0   
 138 弓长岭变.220 1   1  0 1.0000  0.000   72.828  28.4359  0.00000  0.0000  220.00 0.0000 0.00000 0.00000  0.0000  0.0000 0   
 141 耿家变.220.1 1   1  0 1.0020  0.000   113.00  4.34591  0.00000  0.0000  220.00 0.0000 0.00000 0.00000  0.0000  0.0000 0   
 140 高集岗变.220 1   1  0 1.0682  0.000   -6.260  13.7271  0.00000  0.0000  220.00 0.0000 0.00000 0.00000  0.0000  0.0000 0   
 143 高岭变.500.1 1   1  0 1.0718  0.000   719.92  -6.1230  0.00000  0.0000  500.00 0.0000 0.00000 0.00000  0.0000  -1.500 0   
 142 高力板风电变 1   1  0 1.0477  0.000   -19.33  1.98030  0.00000  0.0000  220.00 0.0000 0.00000 0.00000  0.0000  0.0000 0   
 129 抚顺热电厂.2 1   1  0 1.0654  0.000   .37423  2.73955  0.00000  0.0000  220.00 0.0000 0.00000 0.00000  0.0000  0.0000 0   
 128 福利变.220.1 1   1  0 1.0486  0.000   28.772  23.4865  0.00000  0.0000  220.00 0.0000 0.00000 0.00000  0.0000  0.0000 0   
 131 扶余变.220.1 1   1  0 1.0418  0.000   113.24  19.5357  0.00000  0.0000  220.00 0.0000 0.00000 0.00000  0.0000  0.0000 0   
 130 阜新电厂.220 1   1  0 1.0719  0.000   59.029  29.9856  0.00000  0.0000  220.00 0.0000 0.00000 0.00000  0.0000  0.0000 0   
 133 方正变.35.1  1   1  0 .94523  0.000   0.0000  0.00000  0.00000  0.0000  35.000 0.0000 0.00000 0.00000  0.0000  -1.800 0   
 132 复州城变.220 1   1  0 1.0147  0.000   43.259  9.83342  0.00000  0.0000  220.00 0.0000 0.00000 0.00000  0.0000  0.0000 0   
 135 方正变.500.1 1   1  0 1.0821  0.000   0.0000  0.00000  0.00000  0.0000  500.00 0.0000 0.00000 0.00000  0.0000  -3.537 0   
 134 方正变.220.1 1   1  0 1.0640  0.000   0.0000  0.00000  0.00000  0.0000  220.00 0.0000 0.00000 0.00000  0.0000  0.0000 0   
 152 哈一热电厂.2 1   1  0 1.0985  0.000   .11913  4.58005  0.00000  0.0000  220.00 0.0000 0.00000 0.00000  0.0000  0.0000 0   
 153 哈东变.220.1 1   1  0 1.0684  0.000   94.589  31.2072  0.00000  0.0000  220.00 0.0000 0.00000 0.00000  0.0000  0.0000 0   
 154 哈热电厂.220 1   1  0 1.0836  0.000   0.0000  0.00000  0.00000  0.0000  220.00 0.0000 0.00000 0.00000  0.0000  0.0000 0   
 155 哈热电厂.220 1   1  0 1.0838  0.000   0.0000  0.00000  0.00000  0.0000  220.00 0.0000 0.00000 0.00000  0.0000  0.0000 0   
 156 韩屯变.220.1 1   1  0 1.0415  0.000   127.38  33.9326  0.00000  0.0000  220.00 0.0000 0.00000 0.00000  0.0000  0.0000 0   
 157 海湾变.220.1 1   1  0 1.0194  0.000   -26.15  -20.638  0.00000  0.0000  220.00 0.0000 0.00000 0.00000  0.0000  0.0000 0   
 158 哈西变.220.1 1   1  0 1.0856  0.000   126.16  34.7831  0.00000  0.0000  220.00 0.0000 0.00000 0.00000  0.0000  0.0000 0   
 159 河北变.220.1 1   1  0 1.0439  0.000   140.99  24.6247  0.00000  0.0000  220.00 0.0000 0.00000 0.00000  0.0000  0.0000 0   
 144 工农变.220.1 1   1  0 1.0280  0.000   114.80  52.3119  0.00000  0.0000  220.00 0.0000 0.00000 0.00000  0.0000  0.0000 0   
 145 革镇堡变.220 1   1  0 1.0096  0.000   130.01  32.1054  0.00000  0.0000  220.00 0.0000 0.00000 0.00000  0.0000  0.0000 0   
 146 甘旗卡变.220 1   1  0 1.0219  0.000   22.573  4.47883  0.00000  0.0000  220.00 0.0000 0.00000 0.00000  0.0000  0.0000 0   
 147 高台山变.220 1   1  0 1.0528  0.000   97.320  27.8879  0.00000  0.0000  220.00 0.0000 0.00000 0.00000  0.0000  0.0000 0   
 148 国庆变.220.1 1   1  0 1.0634  0.000   34.871  9.21499  0.00000  0.0000  220.00 0.0000 0.00000 0.00000  0.0000  0.0000 0   
 149 港湾变.220.1 1   1  0 1.0674  0.000   39.231  6.40244  0.00000  0.0000  220.00 0.0000 0.00000 0.00000  0.0000  0.0000 0   
 150 公主岭变.220 1   1  0 1.0591  0.000   100.43  20.4170  0.00000  0.0000  220.00 0.0000 0.00000 0.00000  0.0000  0.0000 0   
 151 盖州变.220.1 1   1  0 1.0246  0.000   149.32  27.3020  0.00000  0.0000  220.00 0.0000 0.00000 0.00000  0.0000  0.0000 0   
 171 黑和平变.220 1   1  0 1.0626  0.000   9.6289  -7.3826  0.00000  0.0000  220.00 0.0000 0.00000 0.00000  0.0000  0.0000 0   
 170 黑河变.220.1 1   1  0 1.0442  0.000   -2.952  -19.330  0.00000  0.0000  220.00 0.0000 0.00000 0.00000  0.0000  0.0000 0   
 169 黄海变.500.1 1   1  0 1.0604  0.000   0.0000  0.00000  0.00000  0.0000  500.00 0.0000 0.00000 0.00000  0.0000  -1.525 0   
 168 鹤岗电厂.220 1   1  0 1.0674  0.000   0.0000  0.00000  0.00000  0.0000  220.00 0.0000 0.00000 0.00000  0.0000  0.0000 0   
 175 霍煤坑口电厂 1   1  0 1.0655  0.000   0.0000  0.00000  0.00000  0.0000  500.00 0.0000 0.00000 0.00000  0.0000  -1.602 0   
 174 火炬变.220.1 1   1  0 1.0652  0.000   131.24  31.5777  0.00000  0.0000  220.00 0.0000 0.00000 0.00000  0.0000  0.0000 0   
 173 浑江电厂.220 1   1  0 1.0452  0.000   0.0000  0.00000  0.00000  0.0000  220.00 0.0000 0.00000 0.00000  0.0000  0.0000 0   
 172 浑河变.220.1 1   1  0 1.0393  0.000   222.37  60.6046  0.00000  0.0000  220.00 0.0000 0.00000 0.00000  0.0000  0.0000 0   
 163 桦甸变.220.1 1   1  0 1.0570  0.000   43.437  3.32632  0.00000  0.0000  220.00 0.0000 0.00000 0.00000  0.0000  0.0000 0   
 162 鹤东郊变.220 1   1  0 1.0685  0.000   11.617  -3.9496  0.00000  0.0000  220.00 0.0000 0.00000 0.00000  0.0000  0.0000 0   
 161 海城变.220.1 1   1  0 1.0197  0.000   108.60  1.50980  0.00000  0.0000  220.00 0.0000 0.00000 0.00000  0.0000  0.0000 0   
 160 珲春电厂.220 1   1  0 1.0658  0.000   0.0000  0.00000  0.00000  0.0000  220.00 0.0000 0.00000 0.00000  0.0000  0.0000 0   
 167 和龙变.220.1 1   1  0 1.0638  0.000   21.216  23.7520  0.00000  0.0000  220.00 0.0000 0.00000 0.00000  0.0000  0.0000 0   
 166 黑河换流变.2 1   1  0 1.0433  0.000   0.0000  0.00000  0.00000  0.0000  220.00 0.0000 0.00000 0.00000  0.0000  0.0000 0   
 165 黑河换流变.3 1   1  0 1.0438  0.000   .38168  47.2679  0.00000  0.0000  35.000 0.0000 0.00000 0.00000  0.0000  -0.250 0   
 164 哈达湾变.220 1   1  0 1.0639  0.000   73.303  78.5727  0.00000  0.0000  220.00 0.0000 0.00000 0.00000  0.0000  0.0000 0   
 186 红石水电厂.1 1   1  2 1.0567  0.000   0.0000  0.00000  -0.1667  -0.001  10.000 0.0000 99999.0 -99999.  0.0000  0.0000 0   
 187 和平变.220.1 1   1  0 1.0400  0.000   324.86  174.365  0.00000  0.0000  220.00 0.0000 0.00000 0.00000  0.0000  0.0000 0   
 184 哈南变.220.1 1   1  0 1.0901  0.000   0.0000  0.00000  0.00000  0.0000  220.00 0.0000 0.00000 0.00000  0.0000  0.0000 0   
 185 哈南变.500.1 1   1  0 1.0740  0.000   0.0000  0.00000  0.00000  0.0000  500.00 0.0000 0.00000 0.00000  0.0000  -1.400 0   
 190 哈热B电厂.22 1   1  0 1.0705  0.000   5.5825  7.82340  0.00000  0.0000  220.00 0.0000 0.00000 0.00000  0.0000  0.0000 0   
 191 桓仁变.220.1 1   1  0 1.0315  0.000   -6.400  -5.2355  0.00000  0.0000  220.00 0.0000 0.00000 0.00000  0.0000  0.0000 0   
 188 红旗堡变.220 1   1  0 1.0154  0.000   248.19  -3.4777  0.00000  0.0000  220.00 0.0000 0.00000 0.00000  0.0000  0.0000 0   
 189 红旗变.220.1 1   1  0 1.0599  0.000   166.68  55.6252  0.00000  0.0000  220.00 0.0000 0.00000 0.00000  0.0000  0.0000 0   
 178 海林变.220.1 1   1  0 1.0514  0.000   27.401  5.04621  0.00000  0.0000  220.00 0.0000 0.00000 0.00000  0.0000  0.0000 0   
 179 海伦变.220.1 1   1  0 1.0608  0.000   34.181  9.02584  0.00000  0.0000  220.00 0.0000 0.00000 0.00000  0.0000  0.0000 0   
 176 葫芦岛变.220 1   1  0 1.0634  0.000   129.36  46.2757  0.00000  0.0000  220.00 0.0000 0.00000 0.00000  0.0000  0.0000 0   
 177 霍林河变.220 1   1  0 1.0246  0.000   -11.49  13.3106  0.00000  0.0000  220.00 0.0000 0.00000 0.00000  0.0000  0.0000 0   
 182 呼玛变.220.1 1   1  0 1.0718  0.000   -1.450  14.8505  0.00000  0.0000  220.00 0.0000 0.00000 0.00000  0.0000  0.0000 0   
 183 哈南变.35.2  1   1  0 1.0218  0.000   0.0000  0.00000  0.00000  0.0000  35.000 0.0000 0.00000 0.00000  0.0000  -0.600 0   
 180 霍煤电厂.110 1   1  0 1.0411  0.000   68.379  136.617  0.00000  0.0000  110.00 0.0000 0.00000 0.00000  0.0000  0.0000 0   
 181 霍煤电厂.220 1   1  0 1.0241  0.000   0.0000  0.00000  0.00000  0.0000  220.00 0.0000 0.00000 0.00000  0.0000  0.0000 0   
 205 河西变.220.1 1   1  0 1.0235  0.000   153.70  70.8746  0.00000  0.0000  220.00 0.0000 0.00000 0.00000  0.0000  0.0000 0   
 204 宏伟电厂.220 1   1  0 1.0619  0.000   0.0000  0.00000  0.00000  0.0000  220.00 0.0000 0.00000 0.00000  0.0000  0.0000 0   
 207 合心变.35.1  1   1  0 1.0052  0.000   0.0000  0.00000  0.00000  0.0000  35.000 0.0000 0.00000 0.00000  0.0000  -1.800 0   
 206 红兴隆变.220 1   1  0 1.0580  0.000   87.990  75.9980  0.00000  0.0000  220.00 0.0000 0.00000 0.00000  0.0000  0.0000 0   
 201 环山变.220.1 1   1  0 1.0694  0.000   -2.736  3.39238  0.00000  0.0000  220.00 0.0000 0.00000 0.00000  0.0000  0.0000 0   
 200 花马变.220.1 1   1  0 1.0639  0.000   -34.39  4.52306  0.00000  0.0000  220.00 0.0000 0.00000 0.00000  0.0000  0.0000 0   
 203 鸿铝变.220.2 1   1  0 1.0236  0.000   29.676  5.82778  0.00000  0.0000  220.00 0.0000 0.00000 0.00000  0.0000  0.0000 0   
 202 鸿铝变.220.1 1   1  0 1.0137  0.000   374.67  143.984  0.00000  0.0000  220.00 0.0000 0.00000 0.00000  0.0000  0.0000 0   
 197 华宝变.220.1 1   1  0 1.0574  0.000   -83.45  -1.1867  0.00000  0.0000  220.00 0.0000 0.00000 0.00000  0.0000  0.0000 0   
 196 虎石台变.220 1   1  0 1.0471  0.000   171.15  87.1715  0.00000  0.0000  220.00 0.0000 0.00000 0.00000  0.0000  0.0000 0   
...
-999
BRANCH DATA FOLLOWS                    1335 ITEMS
   3   38 1 1   1 0  0.006310  0.028629   0.05112  0     0     0    0    0  0.0000  0.00   0.0000 0.00000 0.0000 0.0000 99999.0
   5    1 1 1   1 0  0.001500  0.008400   0.01380  0     0     0    0    0  0.0000  0.00   0.0000 0.00000 0.0000 0.0000 99999.0
   5    1 1 1   2 0  0.001400  0.008400   0.01380  0     0     0    0    0  0.0000  0.00   0.0000 0.00000 0.0000 0.0000 99999.0
   4  263 1 1   1 0  0.001600  0.021440   3.71000  0     0     0    0    0  0.0000  0.00   0.0000 0.00000 0.0000 0.0000 99999.0
   4  263 1 1   2 0  0.001600  0.020800   3.69900  0     0     0    0    0  0.0000  0.00   0.0000 0.00000 0.0000 0.0000 99999.0
   3  258 1 1   1 0  0.000680  0.003090   0.00552  0     0     0    0    0  0.0000  0.00   0.0000 0.00000 0.0000 0.0000 99999.0
   3  177 1 1   1 0  0.008200  0.046650   0.07174  0     0     0    0    0  0.0000  0.00   0.0000 0.00000 0.0000 0.0000 99999.0
   3  177 1 1   2 0  0.008298  0.045970   0.07378  0     0     0    0    0  0.0000  0.00   0.0000 0.00000 0.0000 0.0000 99999.0
   3  275 1 1   1 0  0.018800  .1035500   .157440  0     0     0    0    0  0.0000  0.00   0.0000 0.00000 0.0000 0.0000 99999.0
   3  565 1 1   1 0  0.020959  .1187400   .187820  0     0     0    0    0  0.0000  0.00   0.0000 0.00000 0.0000 0.0000 99999.0
   5  563 1 1   1 0  0.005000  0.022800   0.06780  0     0     0    0    0  0.0000  0.00   0.0000 0.00000 0.0000 0.0000 99999.0
   5  563 1 1   2 0  0.004900  0.022900   0.07140  0     0     0    0    0  0.0000  0.00   0.0000 0.00000 0.0000 0.0000 99999.0
  10   78 1 1   1 0  0.002020  0.011360   0.02220  0     0     0    0    0  0.0000  0.00   0.0000 0.00000 0.0000 0.0000 99999.0
  10   78 1 1   2 0  0.002010  0.011350   0.02220  0     0     0    0    0  0.0000  0.00   0.0000 0.00000 0.0000 0.0000 99999.0
   6  188 1 1   1 0  0.000700  0.003100   0.01000  0     0     0    0    0  0.0000  0.00   0.0000 0.00000 0.0000 0.0000 99999.0
  10  279 1 1   1 0  0.001840  0.010520   0.02789  0     0     0    0    0  0.0000  0.00   0.0000 0.00000 0.0000 0.0000 99999.0
  10  279 1 1   2 0  0.001840  0.010520   0.02789  0     0     0    0    0  0.0000  0.00   0.0000 0.00000 0.0000 0.0000 99999.0
  10  188 1 1   1 0  0.000360  0.002500   0.00830  0     0     0    0    0  0.0000  0.00   0.0000 0.00000 0.0000 0.0000 99999.0
  10  188 1 1   2 0  0.000360  0.002500   0.00840  0     0     0    0    0  0.0000  0.00   0.0000 0.00000 0.0000 0.0000 99999.0
  11  499 1 1   1 0  0.000400  0.005100   .500000  0     0     0    0    0  0.0000  0.00   0.0000 0.00000 0.0000 0.0000 99999.0
  11  499 1 1   2 0  0.000400  0.005100   .518000  0     0     0    0    0  0.0000  0.00   0.0000 0.00000 0.0000 0.0000 99999.0
  14  387 1 1   1 0  0.001072  0.013920   2.44920  0     0     0    0    0  0.0000  0.00   0.0000 0.00000 0.0000 0.0000 99999.0
  14  387 1 1   2 0  0.001076  0.013840   2.44136  0     0     0    0    0  0.0000  0.00   0.0000 0.00000 0.0000 0.0000 99999.0
  45   14 1 1   1 0  0.001152  0.012320   2.11166  0     0     0    0    0  0.0000  0.00   0.0000 0.00000 0.0000 0.0000 99999.0
  39  223 1 1   1 0  0.018500  0.097200   .276600  0     0     0    0    0  0.0000  0.00   0.0000 0.00000 0.0000 0.0000 99999.0
  40  140 1 1   1 0  0.013100  0.065900   .236599  0     0     0    0    0  0.0000  0.00   0.0000 0.00000 0.0000 0.0000 99999.0
 584  328 1 1   1 0  0.019100  0.085900   .231599  0     0     0    0    0  0.0000  0.00   0.0000 0.00000 0.0000 0.0000 99999.0
  41  401 1 1   1 0  0.003600  0.016600   0.05620  0     0     0    0    0  0.0000  0.00   0.0000 0.00000 0.0000 0.0000 99999.0
  17  469 1 1   1 0  0.005600  0.031000   0.01000  0     0     0    0    0  0.0000  0.00   0.0000 0.00000 0.0000 0.0000 99999.0
  37  457 1 1   1 0  0.003200  0.024800   0.07663  0     0     0    0    0  0.0000  0.00   0.0000 0.00000 0.0000 0.0000 99999.0
  37  457 1 1   2 0  0.003200  0.024800   0.07663  0     0     0    0    0  0.0000  0.00   0.0000 0.00000 0.0000 0.0000 99999.0
  27  585 1 1   1 0  0.003000  0.011000   0.01000  0     0     0    0    0  0.0000  0.00   0.0000 0.00000 0.0000 0.0000 99999.0
 197  585 1 1   1 0  0.003120  0.015560   0.01000  0     0     0    0    0  0.0000  0.00   0.0000 0.00000 0.0000 0.0000 99999.0
  94  585 1 1   1 0  0.003995  0.025420   0.01000  0     0     0    0    0  0.0000  0.00   0.0000 0.00000 0.0000 0.0000 99999.0
  24  453 1 1   1 0  0.003500  0.020000   0.06240  0     0     0    0    0  0.0000  0.00   0.0000 0.00000 0.0000 0.0000 99999.0
  24  453 1 1   2 0  0.004200  0.021900   0.06180  0     0     0    0    0  0.0000  0.00   0.0000 0.00000 0.0000 0.0000 99999.0
  25  224 1 1   1 0  0.002280  0.016300   1.64600  0     0     0    0    0  0.0000  0.00   0.0000 0.00000 0.0000 0.0000 99999.0
  24  164 1 1   1 0  0.001800  0.008700   0.02120  0     0     0    0    0  0.0000  0.00   0.0000 0.00000 0.0000 0.0000 99999.0
  24  164 1 1   2 0  0.001800  0.008500   0.02160  0     0     0    0    0  0.0000  0.00   0.0000 0.00000 0.0000 0.0000 99999.0
 483  363 1 1   1 0  0.005000  0.027300   0.07420  0     0     0    0    0  0.0000  0.00   0.0000 0.00000 0.0000 0.0000 99999.0
  27   63 1 1   1 0  0.016600  .1045000   .172799  0     0     0    0    0  0.0000  0.00   0.0000 0.00000 0.0000 0.0000 99999.0
  24  519 1 1   1 0  0.001200  0.008300   0.02000  0     0     0    0    0  0.0000  0.00   0.0000 0.00000 0.0000 0.0000 99999.0
  24  519 1 1   2 0  0.001200  0.006900   0.00200  0     0     0    0    0  0.0000  0.00   0.0000 0.00000 0.0000 0.0000 99999.0
  42  138 1 1   1 0  0.001200  0.005330   0.00876  0     0     0    0    0  0.0000  0.00   0.0000 0.00000 0.0000 0.0000 99999.0
 159  187 1 1   1 0  0.001800  0.006390   0.01520  0     0     0    0    0  0.0000  0.00   0.0000 0.00000 0.0000 0.0000 99999.0
 159  187 1 1   2 0  0.001000  0.006600   0.01920  0     0     0    0    0  0.0000  0.00   0.0000 0.00000 0.0000 0.0000 99999.0
  30  371 1 1   1 0  0.001700  0.007600   0.01980  0     0     0    0    0  0.0000  0.00   0.0000 0.00000 0.0000 0.0000 99999.0
  30  371 1 1   2 0  0.001800  0.007000   0.01820  0     0     0    0    0  0.0000  0.00   0.0000 0.00000 0.0000 0.0000 99999.0
  30  434 1 1   1 0  0.004300  0.018900   0.05160  0     0     0    0    0  0.0000  0.00   0.0000 0.00000 0.0000 0.0000 99999.0
  30  434 1 1   2 0  0.004100  0.019600   0.05460  0     0     0    0    0  0.0000  0.00   0.0000 0.00000 0.0000 0.0000 99999.0
  30  430 1 1   1 0  0.010900  0.047200   .130599  0     0     0    0    0  0.0000  0.00   0.0000 0.00000 0.0000 0.0000 99999.0
  30  482 1 1   1 0  0.013900  0.049100   .135199  0     0     0    0    0  0.0000  0.00   0.0000 0.00000 0.0000 0.0000 99999.0
  30  468 1 1   1 0  0.005359  0.024802   0.05020  0     0     0    0    0  0.0000  0.00   0.0000 0.00000 0.0000 0.0000 99999.0
  30  468 1 1   2 0  0.004005  0.021045   0.05760  0     0     0    0    0  0.0000  0.00   0.0000 0.00000 0.0000 0.0000 99999.0
  31  499 1 1   1 0  0.001210  0.013550   1.24820  0     0     0    0    0  0.0000  0.00   0.0000 0.00000 0.0000 0.0000 99999.0
  15  435 1 1   1 0  0.019800  0.094800   .179999  0     0     0    0    0  0.0000  0.00   0.0000 0.00000 0.0000 0.0000 99999.0
 311   30 1 1   1 0  0.001300  0.007600   0.01720  0     0     0    0    0  0.0000  0.00   0.0000 0.00000 0.0000 0.0000 99999.0
  38  567 1 1   1 0  0.000690  0.003120   0.00556  0     0     0    0    0  0.0000  0.00   0.0000 0.00000 0.0000 0.0000 99999.0
  47  563 1 1   1 0  0.004600  0.022800   0.06280  0     0     0    0    0  0.0000  0.00   0.0000 0.00000 0.0000 0.0000 99999.0
  33  233 1 1   1 0  0.000996  0.007970   0.02390  0     0     0    0    0  0.0000  0.00   0.0000 0.00000 0.0000 0.0000 99999.0
  33  151 1 1   1 0  0.000500  0.002930   0.00880  0     0     0    0    0  0.0000  0.00   0.0000 0.00000 0.0000 0.0000 99999.0
  33  501 1 1   1 0  0.001996  0.015000   0.02485  0     0     0    0    0  0.0000  0.00   0.0000 0.00000 0.0000 0.0000 99999.0
  33  501 1 1   2 0  0.001942  0.015220   0.02432  0     0     0    0    0  0.0000  0.00   0.0000 0.00000 0.0000 0.0000 99999.0
  33  114 1 1   1 0  0.004340  0.020420   0.06000  0     0     0    0    0  0.0000  0.00   0.0000 0.00000 0.0000 0.0000 99999.0
  33  288 1 1   1 0  0.003620  0.014470   0.02550  0     0     0    0    0  0.0000  0.00   0.0000 0.00000 0.0000 0.0000 99999.0
  33  288 1 1   2 0  0.003740  0.014970   0.02550  0     0     0    0    0  0.0000  0.00   0.0000 0.00000 0.0000 0.0000 99999.0
  33  326 1 1   1 0  0.003100  0.018100   0.05580  0     0     0    0    0  0.0000  0.00   0.0000 0.00000 0.0000 0.0000 99999.0
  33  326 1 1   2 0  0.003120  0.018120   0.05580  0     0     0    0    0  0.0000  0.00   0.0000 0.00000 0.0000 0.0000 99999.0
  33  107 1 1   1 0  0.002900  0.017200   0.04980  0     0     0    0    0  0.0000  0.00   0.0000 0.00000 0.0000 0.0000 99999.0
  33  107 1 1   2 0  0.003000  0.017400   0.04960  0     0     0    0    0  0.0000  0.00   0.0000 0.00000 0.0000 0.0000 99999.0
  33  489 1 1   1 0  0.002840  0.016450   0.04660  0     0     0    0    0  0.0000  0.00   0.0000 0.00000 0.0000 0.0000 99999.0
  33  489 1 1   2 0  0.002810  0.016500   0.04700  0     0     0    0    0  0.0000  0.00   0.0000 0.00000 0.0000 0.0000 99999.0
  33  529 1 1   1 0  0.007050  0.036600   0.06380  0     0     0    0    0  0.0000  0.00   0.0000 0.00000 0.0000 0.0000 99999.0
  57  274 1 1   1 0  0.010600  0.065400   0.09320  0     0     0    0    0  0.0000  0.00   0.0000 0.00000 0.0000 0.0000 99999.0
  49  572 1 1   1 0  0.001600  0.006400   0.02360  0     0     0    0    0  0.0000  0.00   0.0000 0.00000 0.0000 0.0000 99999.0
  75  421 1 1   1 0  0.014460  0.083500   .179999  0     0     0    0    0  0.0000  0.00   0.0000 0.00000 0.0000 0.0000 99999.0
  55  116 1 1   1 0  0.014300  0.075000   .114800  0     0     0    0    0  0.0000  0.00   0.0000 0.00000 0.0000 0.0000 99999.0
 217  111 1 1   1 0  0.000100  0.005700   0.00820  0     0     0    0    0  0.0000  0.00   0.0000 0.00000 0.0000 0.0000 99999.0
 217  111 1 1   2 0  0.000100  0.005700   0.00820  0     0     0    0    0  0.0000  0.00   0.0000 0.00000 0.0000 0.0000 99999.0
 217  216 1 1   1 0  0.002600  0.015200   0.02280  0     0     0    0    0  0.0000  0.00   0.0000 0.00000 0.0000 0.0000 99999.0
  55  478 1 1   1 0  0.005200  0.025900   0.03800  0     0     0    0    0  0.0000  0.00   0.0000 0.00000 0.0000 0.0000 99999.0
 217  402 1 1   1 0  0.002400  0.014900   0.02180  0     0     0    0    0  0.0000  0.00   0.0000 0.00000 0.0000 0.0000 99999.0
  69  512 1 1   1 0  0.012400  0.064700   0.08040  0     0     0    0    0  0.0000  0.00   0.0000 0.00000 0.0000 0.0000 99999.0
 217  575 1 1   1 0  0.008400  0.050000   0.07540  0     0     0    0    0  0.0000  0.00   0.0000 0.00000 0.0000 0.0000 99999.0
  74   35 1 1   1 0  0.010000  0.039100   0.06980  0     0     0    0    0  0.0000  0.00   0.0000 0.00000 0.0000 0.0000 99999.0
  74  245 1 1   1 0  0.012100  0.049600   0.08000  0     0     0    0    0  0.0000  0.00   0.0000 0.00000 0.0000 0.0000 99999.0
  74  276 1 1   1 0  0.001690  0.009665   0.01564  0     0     0    0    0  0.0000  0.00   0.0000 0.00000 0.0000 0.0000 99999.0
  74  276 1 1   2 0  0.001900  0.011100   0.01500  0     0     0    0    0  0.0000  0.00   0.0000 0.00000 0.0000 0.0000 99999.0
  75   27 1 1   1 0  0.011830  0.011694   .120000  0     0     0    0    0  0.0000  0.00   0.0000 0.00000 0.0000 0.0000 99999.0
  60   42 1 1   1 0  0.003800  0.017850   0.02000  0     0     0    0    0  0.0000  0.00   0.0000 0.00000 0.0000 0.0000 99999.0
  60   42 1 1   2 0  0.003800  0.017850   0.02000  0     0     0    0    0  0.0000  0.00   0.0000 0.00000 0.0000 0.0000 99999.0
  61   83 1 1   1 0  0.001010  0.011640   1.20000  0     0     0    0    0  0.0000  0.00   0.0000 0.00000 0.0000 0.0000 99999.0
  61   83 1 1   2 0  0.000980  0.011230   1.10000  0     0     0    0    0  0.0000  0.00   0.0000 0.00000 0.0000 0.0000 99999.0
 505   81 1 1   1 0  0.015000  0.041300   0.09365  0     0     0    0    0  0.0000  0.00   0.0000 0.00000 0.0000 0.0000 99999.0
  75  142 1 1   1 0  0.032479  .1327299   .190420  0     0     0    0    0  0.0000  0.00   0.0000 0.00000 0.0000 0.0000 99999.0
 233  288 1 1   1 0  0.000996  0.007970   0.02390  0     0     0    0    0  0.0000  0.00   0.0000 0.00000 0.0000 0.0000 99999.0
  60  339 1 1   1 0  0.001113  0.006390   0.02170  0     0     0    0    0  0.0000  0.00   0.0000 0.00000 0.0000 0.0000 99999.0
  60  339 1 1   2 0  0.001089  0.006440   0.02160  0     0     0    0    0  0.0000  0.00   0.0000 0.00000 0.0000 0.0000 99999.0
  61  499 1 1   1 0  0.000494  0.009033   .960000  0     0     0    0    0  0.0000  0.00   0.0000 0.00000 0.0000 0.0000 99999.0
  58  158 1 1   1 0  0.000400  0.002500   0.00660  0     0     0    0    0  0.0000  0.00   0.0000 0.00000 0.0000 0.0000 99999.0
  61  525 1 1   1 0  0.001410  0.006700   .550000  0     0     0    0    0  0.0000  0.00   0.0000 0.00000 0.0000 0.0000 99999.0
  56   73 1 1   1 0  0.004800  0.027700   0.04040  0     0     0    0    0  0.0000  0.00   0.0000 0.00000 0.0000 0.0000 99999.0
  53   97 1 1   1 0  0.002300  0.014400   0.06220  0     0     0    0    0  0.0000  0.00   0.0000 0.00000 0.0000 0.0000 99999.0
  53   97 1 1   2 0  0.002300  0.014600   0.06640  0     0     0    0    0  0.0000  0.00   0.0000 0.00000 0.0000 0.0000 99999.0
  53  113 1 1   1 0  0.001000  0.004900   0.01100  0     0     0    0    0  0.0000  0.00   0.0000 0.00000 0.0000 0.0000 99999.0
  53  113 1 1   2 0  0.001200  0.004900   0.01100  0     0     0    0    0  0.0000  0.00   0.0000 0.00000 0.0000 0.0000 99999.0
  53  586 1 1   1 0  0.001700  0.004800   0.04820  0     0     0    0    0  0.0000  0.00   0.0000 0.00000 0.0000 0.0000 99999.0
  53  587 1 1   1 0  0.002000  0.004700   0.04700  0     0     0    0    0  0.0000  0.00   0.0000 0.00000 0.0000 0.0000 99999.0
  53  397 1 1   1 0  0.005400  0.018000   0.02000  0     0     0    0    0  0.0000  0.00   0.0000 0.00000 0.0000 0.0000 99999.0
 103  370 1 1   1 0  0.006600  0.031400   0.03200  0     0     0    0    0  0.0000  0.00   0.0000 0.00000 0.0000 0.0000 99999.0
 103  370 1 1   2 0  0.006600  0.031400   0.03200  0     0     0    0    0  0.0000  0.00   0.0000 0.00000 0.0000 0.0000 99999.0
 103   62 1 1   1 0  0.001100  0.008600   0.01560  0     0     0    0    0  0.0000  0.00   0.0000 0.00000 0.0000 0.0000 99999.0
 103   62 1 1   2 0  0.001400  0.009000   0.01560  0     0     0    0    0  0.0000  0.00   0.0000 0.00000 0.0000 0.0000 99999.0
  76  282 1 1   1 0  0.015300  0.071300   .104000  0     0     0    0    0  0.0000  0.00   0.0000 0.00000 0.0000 0.0000 99999.0
  93  134 1 1   1 0  0.004000  0.021400   0.07920  0     0     0    0    0  0.0000  0.00   0.0000 0.00000 0.0000 0.0000 99999.0
  93  134 1 1   2 0  0.003900  0.021700   0.07680  0     0     0    0    0  0.0000  0.00   0.0000 0.00000 0.0000 0.0000 99999.0
 103  174 1 1   1 0  0.008400  0.025100   0.04160  0     0     0    0    0  0.0000  0.00   0.0000 0.00000 0.0000 0.0000 99999.0
 103  174 1 1   2 0  0.008400  0.025100   0.04160  0     0     0    0    0  0.0000  0.00   0.0000 0.00000 0.0000 0.0000 99999.0
  93  323 1 1   1 0  0.015900  0.098000   .148899  0     0     0    0    0  0.0000  0.00   0.0000 0.00000 0.0000 0.0000 99999.0
  80  588 1 1   1 0  0.001000  0.004000   0.00760  0     0     0    0    0  0.0000  0.00   0.0000 0.00000 0.0000 0.0000 99999.0
  80  589 1 1   1 0  0.001200  0.004100   0.00700  0     0     0    0    0  0.0000  0.00   0.0000 0.00000 0.0000 0.0000 99999.0
  54  392 1 1   1 0  0.018300  .1129000   .171600  0     0     0    0    0  0.0000  0.00   0.0000 0.00000 0.0000 0.0000 99999.0
 104  423 1 1   1 0  0.001080  0.016944   2.01630  0     0     0    0    0  0.0000  0.00   0.0000 0.00000 0.0000 0.0000 99999.0
 104  423 1 1   2 0  0.001090  0.015384   2.01630  0     0     0    0    0  0.0000  0.00   0.0000 0.00000 0.0000 0.0000 99999.0
 104  423 1 1   3 0  0.001090  0.015384   2.01630  0     0     0    0    0  0.0000  0.00   0.0000 0.00000 0.0000 0.0000 99999.0
  77  577 1 1   1 0  0.019100  .1026000   .154799  0     0     0    0    0  0.0000  0.00   0.0000 0.00000 0.0000 0.0000 99999.0
  90  312 1 1   1 0  0.003600  0.031700   0.08860  0     0     0    0    0  0.0000  0.00   0.0000 0.00000 0.0000 0.0000 99999.0
  90  540 1 1   1 0  0.002100  0.011100   0.01940  0     0     0    0    0  0.0000  0.00   0.0000 0.00000 0.0000 0.0000 99999.0
  82   85 1 1   1 0  0.003410  0.018590   0.03500  0     0     0    0    0  0.0000  0.00   0.0000 0.00000 0.0000 0.0000 99999.0
  83  169 1 1   1 0  0.001136  0.012960   1.45000  0     0     0    0    0  0.0000  0.00   0.0000 0.00000 0.0000 0.0000 99999.0
  83  169 1 1   2 0  0.001136  0.012960   1.45000  0     0     0    0    0  0.0000  0.00   0.0000 0.00000 0.0000 0.0000 99999.0
  82  265 1 1   1 0  0.002280  0.015840   0.04600  0     0     0    0    0  0.0000  0.00   0.0000 0.00000 0.0000 0.0000 99999.0
  82  432 1 1   1 0  0.005808  0.044550   .132000  0     0     0    0    0  0.0000  0.00   0.0000 0.00000 0.0000 0.0000 99999.0
  82  515 1 1   1 0  0.014740  0.083420   .158999  0     0     0    0    0  0.0000  0.00   0.0000 0.00000 0.0000 0.0000 99999.0
  86  249 1 1   1 0  0.008000  0.042300   0.06460  0     0     0    0    0  0.0000  0.00   0.0000 0.00000 0.0000 0.0000 99999.0
  86  492 1 1   1 0  0.017200  0.050600   .112800  0     0     0    0    0  0.0000  0.00   0.0000 0.00000 0.0000 0.0000 99999.0
 108  433 1 1   1 0  0.007100  0.029500   0.04520  0     0     0    0    0  0.0000  0.00   0.0000 0.00000 0.0000 0.0000 99999.0
 543   34 1 1   1 0  0.000320  0.004200   .400000  0     0     0    0    0  0.0000  0.00   0.0000 0.00000 0.0000 0.0000 99999.0
 543   34 1 1   2 0  0.000320  0.004140   .420000  0     0     0    0    0  0.0000  0.00   0.0000 0.00000 0.0000 0.0000 99999.0
   7   50 1 1   1 0  0.000400  0.001800   0.00440  0     0     0    0    0  0.0000  0.00   0.0000 0.00000 0.0000 0.0000 99999.0
   7   50 1 1   2 0  0.000400  0.001800   0.00440  0     0     0    0    0  0.0000  0.00   0.0000 0.00000 0.0000 0.0000 99999.0
  84   82 1 1   1 0  0.005660  0.037500   .100900  0     0     0    0    0  0.0000  0.00   0.0000 0.00000 0.0000 0.0000 99999.0
  84   82 1 1   2 0  0.006460  0.037800   .100900  0     0     0    0    0  0.0000  0.00   0.0000 0.00000 0.0000 0.0000 99999.0
 255   91 1 1   1 0  0.000300  0.002400   0.00640  0     0     0    0    0  0.0000  0.00   0.0000 0.00000 0.0000 0.0000 99999.0
 255   91 1 1   2 0  0.000300  0.002200   0.00660  0     0     0    0    0  0.0000  0.00   0.0000 0.00000 0.0000 0.0000 99999.0
  96  119 1 1   1 0  0.002154  0.010137   0.01000  0     0     0    0    0  0.0000  0.00   0.0000 0.00000 0.0000 0.0000 99999.0
  96  119 1 1   2 0  0.002154  0.010137   0.01000  0     0     0    0    0  0.0000  0.00   0.0000 0.00000 0.0000 0.0000 99999.0
 542  114 1 1   1 0  0.000579  0.003410   0.00806  0     0     0    0    0  0.0000  0.00   0.0000 0.00000 0.0000 0.0000 99999.0
 542  114 1 1   2 0  0.000579  0.003410   0.00806  0     0     0    0    0  0.0000  0.00   0.0000 0.00000 0.0000 0.0000 99999.0
 464  205 1 1   1 0  0.000500  0.005800   0.01940  0     0     0    0    0  0.0000  0.00   0.0000 0.00000 0.0000 0.0000 99999.0
 464  205 1 1   2 0  0.000700  0.006600   0.01520  0     0     0    0    0  0.0000  0.00   0.0000 0.00000 0.0000 0.0000 99999.0
 255  257 1 1   1 0  0.004000  0.017300   0.04700  0     0     0    0    0  0.0000  0.00   0.0000 0.00000 0.0000 0.0000 99999.0
 255  257 1 1   2 0  0.003800  0.017400   0.04600  0     0     0    0    0  0.0000  0.00   0.0000 0.00000 0.0000 0.0000 99999.0
 255  281 1 1   1 0  0.002300  0.011200   0.02700  0     0     0    0    0  0.0000  0.00   0.0000 0.00000 0.0000 0.0000 99999.0
 255  281 1 1   2 0  0.002600  0.013000   0.03640  0     0     0    0    0  0.0000  0.00   0.0000 0.00000 0.0000 0.0000 99999.0
 181  202 1 1   1 0  0.000900  0.004900   0.01480  0     0     0    0    0  0.0000  0.00   0.0000 0.00000 0.0000 0.0000 99999.0
 181  203 1 1   1 0  0.000800  0.005100   0.01520  0     0     0    0    0  0.0000  0.00   0.0000 0.00000 0.0000 0.0000 99999.0
 256  406 1 1   1 0  0.004000  0.036200   0.09580  0     0     0    0    0  0.0000  0.00   0.0000 0.00000 0.0000 0.0000 99999.0
 452  301 1 1   1 0  0.000900  0.004800   0.01068  0     0     0    0    0  0.0000  0.00   0.0000 0.00000 0.0000 0.0000 99999.0
 115  424 1 1   1 0  0.006065  0.028536   0.01000  0     0     0    0    0  0.0000  0.00   0.0000 0.00000 0.0000 0.0000 99999.0
 464  465 1 1   1 0  0.003300  0.012000   0.02820  0     0     0    0    0  0.0000  0.00   0.0000 0.00000 0.0000 0.0000 99999.0
 464  465 1 1   2 0  0.002500  0.010300   0.03000  0     0     0    0    0  0.0000  0.00   0.0000 0.00000 0.0000 0.0000 99999.0
  84  526 1 1   1 0  0.001100  0.005400   0.01780  0     0     0    0    0  0.0000  0.00   0.0000 0.00000 0.0000 0.0000 99999.0
  84  526 1 1   2 0  0.001100  0.005400   0.01780  0     0     0    0    0  0.0000  0.00   0.0000 0.00000 0.0000 0.0000 99999.0
 542  529 1 1   1 0  0.002900  0.014900   0.04100  0     0     0    0    0  0.0000  0.00   0.0000 0.00000 0.0000 0.0000 99999.0
 452  556 1 1   1 0  0.000600  0.003400   0.01300  0     0     0    0    0  0.0000  0.00   0.0000 0.00000 0.0000 0.0000 99999.0
 256  311 1 1   1 0  0.012000  0.038000   0.07200  0     0     0    0    0  0.0000  0.00   0.0000 0.00000 0.0000 0.0000 99999.0
 256  561 1 1   1 0  0.004010  0.021636   0.06062  0     0     0    0    0  0.0000  0.00   0.0000 0.00000 0.0000 0.0000 99999.0
 256  561 1 1   2 0  0.003760  0.021466   0.06071  0     0     0    0    0  0.0000  0.00   0.0000 0.00000 0.0000 0.0000 99999.0
 566  579 1 1   1 0  0.005300  0.025000   0.01000  0     0     0    0    0  0.0000  0.00   0.0000 0.00000 0.0000 0.0000 99999.0
  79  119 1 1   1 0  0.002400  0.014100   0.03940  0     0     0    0    0  0.0000  0.00   0.0000 0.00000 0.0000 0.0000 99999.0
  79  490 1 1   1 0  0.006600  0.035700   0.05480  0     0     0    0    0  0.0000  0.00   0.0000 0.00000 0.0000 0.0000 99999.0
  79  490 1 1   2 0  0.006900  0.035700   0.05600  0     0     0    0    0  0.0000  0.00   0.0000 0.00000 0.0000 0.0000 99999.0
  92   31 1 1   1 0  0.000570  0.005570   .520000  0     0     0    0    0  0.0000  0.00   0.0000 0.00000 0.0000 0.0000 99999.0
  97   26 1 1   1 0  0.002700  0.012700   0.02340  0     0     0    0    0  0.0000  0.00   0.0000 0.00000 0.0000 0.0000 99999.0
  97   26 1 1   2 0  0.002700  0.012700   0.02340  0     0     0    0    0  0.0000  0.00   0.0000 0.00000 0.0000 0.0000 99999.0
 278   43 1 1   1 0  0.002300  0.007800   0.01380  0     0     0    0    0  0.0000  0.00   0.0000 0.00000 0.0000 0.0000 99999.0
 453  225 1 1   1 0  0.002700  0.015000   0.04000  0     0     0    0    0  0.0000  0.00   0.0000 0.00000 0.0000 0.0000 99999.0
 162  201 1 1   1 0  0.009000  0.050400   0.08280  0     0     0    0    0  0.0000  0.00   0.0000 0.00000 0.0000 0.0000 99999.0
  92  318 1 1   1 0  0.001500  0.017100   1.66300  0     0     0    0    0  0.0000  0.00   0.0000 0.00000 0.0000 0.0000 99999.0
  92  318 1 1   2 0  0.001600  0.017800   1.66700  0     0     0    0    0  0.0000  0.00   0.0000 0.00000 0.0000 0.0000 99999.0
 223  328 1 1   1 0  0.003000  0.015200   0.03420  0     0     0    0    0  0.0000  0.00   0.0000 0.00000 0.0000 0.0000 99999.0
 223  328 1 1   2 0  0.003100  0.015800   0.03460  0     0     0    0    0  0.0000  0.00   0.0000 0.00000 0.0000 0.0000 99999.0
 223  333 1 1   1 0  0.001200  0.006000   0.01000  0     0     0    0    0  0.0000  0.00   0.0000 0.00000 0.0000 0.0000 99999.0
  78  352 1 1   1 0  0.001200  0.005900   0.01500  0     0     0    0    0  0.0000  0.00   0.0000 0.00000 0.0000 0.0000 99999.0
 223  401 1 1   1 0  0.014000  0.092000   .222399  0     0     0    0    0  0.0000  0.00   0.0000 0.00000 0.0000 0.0000 99999.0
 453  418 1 1   1 0  0.011500  0.058800   .116000  0     0     0    0    0  0.0000  0.00   0.0000 0.00000 0.0000 0.0000 99999.0
  97  443 1 1   1 0  0.008700  0.057600   0.05020  0     0     0    0    0  0.0000  0.00   0.0000 0.00000 0.0000 0.0000 99999.0
 153  590 1 1   1 0  0.001600  0.008900   0.02560  0     0     0    0    0  0.0000  0.00   0.0000 0.00000 0.0000 0.0000 99999.0
 153  591 1 1   1 0  0.001700  0.008900   0.02560  0     0     0    0    0  0.0000  0.00   0.0000 0.00000 0.0000 0.0000 99999.0
 282  334 1 1   1 0  0.009600  0.061800   0.09779  0     0     0    0    0  0.0000  0.00   0.0000 0.00000 0.0000 0.0000 99999.0
 453  592 1 1   1 0  0.001100  0.006700   0.00960  0     0     0    0    0  0.0000  0.00   0.0000 0.00000 0.0000 0.0000 99999.0
  99  555 1 1   1 0  0.003900  0.016700   0.01720  0     0     0    0    0  0.0000  0.00   0.0000 0.00000 0.0000 0.0000 99999.0
 153  563 1 1   1 0  0.003500  0.020100   0.02980  0     0     0    0    0  0.0000  0.00   0.0000 0.00000 0.0000 0.0000 99999.0
 153  563 1 1   2 0  0.002700  0.015400   0.04040  0     0     0    0    0  0.0000  0.00   0.0000 0.00000 0.0000 0.0000 99999.0
 153  563 1 1   3 0  0.002700  0.015600   0.04060  0     0     0    0    0  0.0000  0.00   0.0000 0.00000 0.0000 0.0000 99999.0
 321   78 1 1   1 0  0.001400  0.006800   0.06500  0     0     0    0    0  0.0000  0.00   0.0000 0.00000 0.0000 0.0000 99999.0
  85  574 1 1   1 0  0.020000  .1080000   .184000  0     0     0    0    0  0.0000  0.00   0.0000 0.00000 0.0000 0.0000 99999.0
  89  560 1 1   1 0  0.015100  0.098100   .148000  0     0     0    0    0  0.0000  0.00   0.0000 0.00000 0.0000 0.0000 99999.0
  89  560 1 1   2 0  0.018600  0.097400   .196800  0     0     0    0    0  0.0000  0.00   0.0000 0.00000 0.0000 0.0000 99999.0
...
-999
LOSS ZONES FOLLOWS   0 ITEMS
-99
INTERCHANGE DATA FOLLOWS      0 ITEMS
-9
TIE LINES FOLLOWS             0ITEMS
-999
END OF DATA